Circuit: * C:\roboter\2016_common\et\projects\ultrasonic_beacon\V3\amplifier\mc34063\reference_Design\MC34063_buck.asc

Direct Newton iteration for .op point succeeded.

Date: Wed Feb 14 18:28:29 2018
Total elapsed time: 1.476 seconds.

tnom = 27
temp = 27
method = Gear
totiter = 58653
traniter = 58637
tranpoints = 27474
accept = 25135
rejected = 2339
matrix size = 38
fillins = 43
solver = Alternate
Matrix Compiler1: 5.22 KB object code size  1.9/1.3/[0.8]
Matrix Compiler2: 3.95 KB object code size  0.9/0.9/[0.8]


